*Heading
 Minimal cantilever beam (1 C3D8 element) for AIENG demo
*NODE
1, 0.0, 0.0, 0.0
2, 10.0, 0.0, 0.0
3, 10.0, 1.0, 0.0
4, 0.0, 1.0, 0.0
5, 0.0, 0.0, 1.0
6, 10.0, 0.0, 1.0
7, 10.0, 1.0, 1.0
8, 0.0, 1.0, 1.0
*ELEMENT, TYPE=C3D8, ELSET=Eall
1, 1, 2, 3, 4, 5, 6, 7, 8
*NSET, NSET=FIX
1, 4, 5, 8
*NSET, NSET=LOAD
2, 3, 6, 7
*MATERIAL, NAME=Steel
*ELASTIC
210000.0, 0.3
*SOLID SECTION, ELSET=Eall, MATERIAL=Steel
*STEP
*STATIC
*BOUNDARY
FIX, 1, 3, 0.0
*CLOAD
LOAD, 2, -100.0
*NODE FILE, NSET=LOAD
U
*EL FILE, ELSET=Eall
S
*NODE PRINT, NSET=LOAD
U
*EL PRINT, ELSET=Eall
S
*END STEP
