** Minimal CAE loadcase fixture for Phase 10A
*MATERIAL, NAME=Al6061-T6
*ELASTIC
69000, 0.33
*DENSITY
2700
*BOUNDARY
FIXED_HOLES, 1, 6, 0
*CLOAD
LOAD_FACE, 1, 500
